40
	Energy:     188.3599386
C          0.22757       -0.59920       -0.47509
C          1.21449        0.40389       -0.30005
C          2.56198        0.04622       -0.11156
C          2.93483       -1.30906       -0.13071
C          1.96479       -2.26466       -0.44472
C          0.65123       -1.93233       -0.54221
H          0.92578        1.44525       -0.22364
H          3.28704        0.81241        0.14156
O         -1.07854       -0.28691       -0.51900
H         -1.39221        0.62129       -0.39083
O         -0.13482       -3.03007       -0.59052
C          2.12721       -3.73822       -0.40638
C          2.80521       -3.89841        0.96033
C          4.29262       -3.30666        0.75369
C          4.25250       -1.76709        0.44651
H          5.13484       -1.40656       -0.13097
H          4.29769       -1.26458        1.43568
C          0.63800       -4.18913       -0.54771
C          0.22530       -5.20070        0.56574
C          1.41727       -5.92290        1.20243
C          2.61689       -5.32506        1.39692
H          2.27016       -3.30987        1.74667
H          3.44569       -5.88632        1.81348
H          1.30795       -6.96576        1.48181
H          0.48361       -4.66192       -1.54335
O         -0.63966       -6.17600        0.03528
H         -1.50724       -5.74293       -0.16368
H         -0.27006       -4.65314        1.39504
C          2.96473       -4.46236       -1.53240
C          4.34171       -4.96694       -1.07957
H          3.02347       -3.80987       -2.42764
H          2.47507       -5.41191       -1.84848
N          5.04230       -3.89601       -0.39082
H          4.90773       -5.32426       -1.96707
H          4.25842       -5.84453       -0.40401
H          4.86496       -3.44691        1.69844
C          6.42560       -4.25496       -0.03765
H          6.45399       -4.91532        0.85648
H          7.00177       -3.32855        0.17329
H          6.93317       -4.77335       -0.87950
