20
	Energy:      41.1425946
C         -5.93874        1.10868       -0.04632
C         -4.56210        1.77803       -0.18467
C         -3.44827        1.15674        0.69720
C         -3.11286       -0.29146        0.37716
C         -1.86407       -0.37073       -0.05511
C         -1.33220        0.96712       -0.02114
O         -2.25807        1.82682        0.44082
H         -3.70593        1.25008        1.77466
O         -0.19936        1.29168       -0.33721
O         -4.67249        3.15115        0.10151
H         -4.25239        1.68587       -1.24941
H         -4.95416        3.24023        1.05001
O         -6.86788        1.78655       -0.84642
H         -6.26183        1.14953        1.01830
H         -5.88009        0.05790       -0.39355
H         -7.74097        1.33931       -0.69552
O         -3.91993       -1.36251        0.53308
H         -4.78936       -1.29113        0.94708
O         -1.20543       -1.48879       -0.42896
H         -1.63030       -2.35797       -0.41589
